/tmp/script.sh: line 11: ./../sim-outorder: No such file or directory
